Geometries in cache: 6
Geometry cache size in bytes: 76208
CGAL Polyhedrons in cache: 0
CGAL cache size in bytes: 0
Total rendering time: 0:00:00.001
   Top level object is a 3D object:
   Facets:        472
Geometries in cache: 6
Geometry cache size in bytes: 44208
CGAL Polyhedrons in cache: 0
CGAL cache size in bytes: 0
Total rendering time: 0:00:00.000
   Top level object is a 3D object:
   Facets:        272
/*---------------------------------------------------------------------------*\
| =========                 |                                                 |
| \\      /  F ield         | OpenFOAM: The Open Source CFD Toolbox           |
|  \\    /   O peration     | Version:  2012                                  |
|   \\  /    A nd           | Website:  www.openfoam.com                      |
|    \\/     M anipulation  |                                                 |
\*---------------------------------------------------------------------------*/
Build  : _269d0ffd5c-20210619 OPENFOAM=2012 patch=210618
Arch   : "LSB;label=32;scalar=64"
Exec   : blockMesh
Date   : Nov 01 2021
Time   : 12:34:57
Host   : LAPTOP-LJVLTNH1
PID    : 9954
I/O    : uncollated
Case   : /mnt/c/Users/Tushar/Desktop/OpenFoamToolchain-NEW/OpenFoamToolchain/Simulation_Outputs/test_1/snappyHexMesh
nProcs : 1
trapFpe: Floating point exception trapping enabled (FOAM_SIGFPE).
fileModificationChecking : Monitoring run-time modified files using timeStampMaster (fileModificationSkew 5, maxFileModificationPolls 20)
allowSystemOperations : Allowing user-supplied system call operations

// * * * * * * * * * * * * * * * * * * * * * * * * * * * * * * * * * * * * * //
Create time

Creating block mesh from "system/blockMeshDict"
Creating block edges
No non-planar block faces defined
Creating topology blocks
Creating topology patches

Creating block mesh topology

Check topology

	Basic statistics
		Number of internal faces : 0
		Number of boundary faces : 6
		Number of defined boundary faces : 6
		Number of undefined boundary faces : 0
	Checking patch -> block consistency

Creating block offsets
Creating merge list (topological search)...

Creating polyMesh from blockMesh
Creating patches
Creating cells
Creating points with scale 1
    Block 0 cell size :
        i : 4.19666940692 .. 4.10350419305
        j : 4.17126071223 .. 4.12891288774
        k : 0.0221 .. 0.0221


There are no merge patch pairs

Writing polyMesh with 0 cellZones
----------------
Mesh Information
----------------
  boundingBox: (-100 -100 0.05) (100 100 0.0721)
  nPoints: 181202
  nCells: 90000
  nFaces: 360600
  nInternalFaces: 179400
----------------
Patches
----------------
  patch 0 (start: 179400 size: 600) name: topAndBottom
  patch 1 (start: 180000 size: 300) name: inlet
  patch 2 (start: 180300 size: 300) name: outlet
  patch 3 (start: 180600 size: 90000) name: front
  patch 4 (start: 270600 size: 90000) name: back

End

/*---------------------------------------------------------------------------*\
| =========                 |                                                 |
| \\      /  F ield         | OpenFOAM: The Open Source CFD Toolbox           |
|  \\    /   O peration     | Version:  2012                                  |
|   \\  /    A nd           | Website:  www.openfoam.com                      |
|    \\/     M anipulation  |                                                 |
\*---------------------------------------------------------------------------*/
Build  : _269d0ffd5c-20210619 OPENFOAM=2012 patch=210618
Arch   : "LSB;label=32;scalar=64"
Exec   : surfaceFeatureExtract
Date   : Nov 01 2021
Time   : 12:34:58
Host   : LAPTOP-LJVLTNH1
PID    : 9968
I/O    : uncollated
Case   : /mnt/c/Users/Tushar/Desktop/OpenFoamToolchain-NEW/OpenFoamToolchain/Simulation_Outputs/test_1/snappyHexMesh
nProcs : 1
trapFpe: Floating point exception trapping enabled (FOAM_SIGFPE).
fileModificationChecking : Monitoring run-time modified files using timeStampMaster (fileModificationSkew 5, maxFileModificationPolls 20)
allowSystemOperations : Allowing user-supplied system call operations

// * * * * * * * * * * * * * * * * * * * * * * * * * * * * * * * * * * * * * //
Create time


Note: Feature line extraction only valid on closed manifold surfaces

Reading surfaceFeatureExtractDict

Surfaces     : bladenlf26.stl
Output       : bladenlf26
Load options : offset
Write options: writeObj=yes writeVTK=off

Statistics:
Triangles    : 744 in 2 region(s)
Vertices     : 376
Bounding Box : (3.05175999529e-05 -0.103073000908 0) (1.20219004154 0.0883788987994 5)

Constructing feature set from included angle 150
Selecting edges based purely on geometric tests: no
Removing features with number of edges < 10

Initial Feature set:
    points : 0
    edges  : 372
    of which
        region edges   : 0
        external edges : 372
        internal edges : 0

Final Feature set:
    points : 376
    of which
        convex             : 0
        concave            : 0
        mixed              : 0
        non-feature        : 376
    edges  : 372
    of which
        external edges     : 372
        internal edges     : 0
        flat edges         : 0
        open edges         : 0
        multiply connected : 0

Writing extendedFeatureEdgeMesh to "/mnt/c/Users/Tushar/Desktop/OpenFoamToolchain-NEW/OpenFoamToolchain/Simulation_Outputs/test_1/snappyHexMesh/constant/extendedFeatureEdgeMesh/bladenlf26.extendedFeatureEdgeMesh"

Writing extendedEdgeMesh components to "/mnt/c/Users/Tushar/Desktop/OpenFoamToolchain-NEW/OpenFoamToolchain/Simulation_Outputs/test_1/snappyHexMesh/constant/extendedFeatureEdgeMesh/bladenlf26"
Writing 0 convex feature points to "/mnt/c/Users/Tushar/Desktop/OpenFoamToolchain-NEW/OpenFoamToolchain/Simulation_Outputs/test_1/snappyHexMesh/constant/extendedFeatureEdgeMesh/bladenlf26_convexFeaturePts.obj"
Writing 0 concave feature points to "/mnt/c/Users/Tushar/Desktop/OpenFoamToolchain-NEW/OpenFoamToolchain/Simulation_Outputs/test_1/snappyHexMesh/constant/extendedFeatureEdgeMesh/bladenlf26_concaveFeaturePts.obj"
Writing 0 mixed feature points to "/mnt/c/Users/Tushar/Desktop/OpenFoamToolchain-NEW/OpenFoamToolchain/Simulation_Outputs/test_1/snappyHexMesh/constant/extendedFeatureEdgeMesh/bladenlf26_mixedFeaturePts.obj"
Writing 0 mixed feature point structure to "/mnt/c/Users/Tushar/Desktop/OpenFoamToolchain-NEW/OpenFoamToolchain/Simulation_Outputs/test_1/snappyHexMesh/constant/extendedFeatureEdgeMesh/bladenlf26_mixedFeaturePtsStructure.obj"
Writing 372 external edges to "/mnt/c/Users/Tushar/Desktop/OpenFoamToolchain-NEW/OpenFoamToolchain/Simulation_Outputs/test_1/snappyHexMesh/constant/extendedFeatureEdgeMesh/bladenlf26_externalEdges.obj"
Writing 0 internal edges to "/mnt/c/Users/Tushar/Desktop/OpenFoamToolchain-NEW/OpenFoamToolchain/Simulation_Outputs/test_1/snappyHexMesh/constant/extendedFeatureEdgeMesh/bladenlf26_internalEdges.obj"
Writing 0 flat edges to "/mnt/c/Users/Tushar/Desktop/OpenFoamToolchain-NEW/OpenFoamToolchain/Simulation_Outputs/test_1/snappyHexMesh/constant/extendedFeatureEdgeMesh/bladenlf26_flatEdges.obj"
Writing 0 open edges to "/mnt/c/Users/Tushar/Desktop/OpenFoamToolchain-NEW/OpenFoamToolchain/Simulation_Outputs/test_1/snappyHexMesh/constant/extendedFeatureEdgeMesh/bladenlf26_openEdges.obj"
Writing 0 multiple edges to "/mnt/c/Users/Tushar/Desktop/OpenFoamToolchain-NEW/OpenFoamToolchain/Simulation_Outputs/test_1/snappyHexMesh/constant/extendedFeatureEdgeMesh/bladenlf26_multipleEdges.obj"
Writing 0 region edges to "/mnt/c/Users/Tushar/Desktop/OpenFoamToolchain-NEW/OpenFoamToolchain/Simulation_Outputs/test_1/snappyHexMesh/constant/extendedFeatureEdgeMesh/bladenlf26_regionEdges.obj"
Writing 372 edge directions to "/mnt/c/Users/Tushar/Desktop/OpenFoamToolchain-NEW/OpenFoamToolchain/Simulation_Outputs/test_1/snappyHexMesh/constant/extendedFeatureEdgeMesh/bladenlf26_edgeDirections.obj"

Writing featureEdgeMesh to "/mnt/c/Users/Tushar/Desktop/OpenFoamToolchain-NEW/OpenFoamToolchain/Simulation_Outputs/test_1/snappyHexMesh/constant/triSurface/bladenlf26.eMesh"
ExecutionTime = 0.08 s  ClockTime = 0 s

End

/*---------------------------------------------------------------------------*\
| =========                 |                                                 |
| \\      /  F ield         | OpenFOAM: The Open Source CFD Toolbox           |
|  \\    /   O peration     | Version:  2012                                  |
|   \\  /    A nd           | Website:  www.openfoam.com                      |
|    \\/     M anipulation  |                                                 |
\*---------------------------------------------------------------------------*/
Build  : _269d0ffd5c-20210619 OPENFOAM=2012 patch=210618
Arch   : "LSB;label=32;scalar=64"
Exec   : decomposePar
Date   : Nov 01 2021
Time   : 12:34:58
Host   : LAPTOP-LJVLTNH1
PID    : 9969
I/O    : uncollated
Case   : /mnt/c/Users/Tushar/Desktop/OpenFoamToolchain-NEW/OpenFoamToolchain/Simulation_Outputs/test_1/snappyHexMesh
nProcs : 1
trapFpe: Floating point exception trapping enabled (FOAM_SIGFPE).
fileModificationChecking : Monitoring run-time modified files using timeStampMaster (fileModificationSkew 5, maxFileModificationPolls 20)
allowSystemOperations : Allowing user-supplied system call operations

// * * * * * * * * * * * * * * * * * * * * * * * * * * * * * * * * * * * * * //
Create time



Decomposing mesh region0

Create mesh

Calculating distribution of cells
Selecting decompositionMethod simple [4]

Finished decomposition in 0.07 s

Calculating original mesh data

Distributing cells to processors

Distributing faces to processors

Distributing points to processors

Constructing processor meshes

Processor 0
    Number of cells = 22499
    Number of faces shared with processor 1 = 154
    Number of faces shared with processor 2 = 154
    Number of processor patches = 2
    Number of processor faces = 308
    Number of boundary faces = 45298

Processor 1
    Number of cells = 22501
    Number of faces shared with processor 0 = 154
    Number of faces shared with processor 3 = 154
    Number of processor patches = 2
    Number of processor faces = 308
    Number of boundary faces = 45302

Processor 2
    Number of cells = 22501
    Number of faces shared with processor 0 = 154
    Number of faces shared with processor 3 = 154
    Number of processor patches = 2
    Number of processor faces = 308
    Number of boundary faces = 45302

Processor 3
    Number of cells = 22499
    Number of faces shared with processor 1 = 154
    Number of faces shared with processor 2 = 154
    Number of processor patches = 2
    Number of processor faces = 308
    Number of boundary faces = 45298

Number of processor faces = 616
Max number of cells = 22501 (0.00444444444444% above average 22500)
Max number of processor patches = 2 (0% above average 2)
Max number of faces between processors = 308 (0% above average 308)

Time = 0

Processor 0: field transfer
Processor 1: field transfer
Processor 2: field transfer
Processor 3: field transfer

End

/*---------------------------------------------------------------------------*\
| =========                 |                                                 |
| \\      /  F ield         | OpenFOAM: The Open Source CFD Toolbox           |
|  \\    /   O peration     | Version:  2012                                  |
|   \\  /    A nd           | Website:  www.openfoam.com                      |
|    \\/     M anipulation  |                                                 |
\*---------------------------------------------------------------------------*/
Build  : _269d0ffd5c-20210619 OPENFOAM=2012 patch=210618
Arch   : "LSB;label=32;scalar=64"
Exec   : snappyHexMesh -overwrite -parallel
Date   : Nov 01 2021
Time   : 12:35:03
Host   : LAPTOP-LJVLTNH1
PID    : 9984
I/O    : uncollated
Case   : /mnt/c/Users/Tushar/Desktop/OpenFoamToolchain-NEW/OpenFoamToolchain/Simulation_Outputs/test_1/snappyHexMesh
nProcs : 4
Hosts  :
(
    (LAPTOP-LJVLTNH1 4)
)
Pstream initialized with:
    floatTransfer      : 0
    nProcsSimpleSum    : 0
    commsType          : nonBlocking
    polling iterations : 0
trapFpe: Floating point exception trapping enabled (FOAM_SIGFPE).
fileModificationChecking : Monitoring run-time modified files using timeStampMaster (fileModificationSkew 5, maxFileModificationPolls 20)
allowSystemOperations : Allowing user-supplied system call operations

// * * * * * * * * * * * * * * * * * * * * * * * * * * * * * * * * * * * * * //
Create time

Create mesh for time = 0

Read mesh in = 0.17 s

Overall mesh bounding box  : (-100 -100 0.05) (100 100 0.0721)
Relative tolerance         : 1e-08
Absolute matching distance : 2.82842713338e-06

Reading refinement surfaces.
Read refinement surfaces in = 0.02 s

Reading refinement shells.
Refinement level according to distance to bladenlf26.stl
    level 0 for all cells within 0.2 metre.
    level 0 for all cells within 0.3 metre.
    level 0 for all cells within 0.4 metre.
    level 0 for all cells within 0.5 metre.
Refinement level 1 for all cells inside refinementBox
Refinement level 0 for all cells inside refinementBox2
Refinement level 0 for all cells inside cylinder
Additional directional refinement level for all cells inside cylinder
Read refinement shells in = 0 s

Setting refinement level of surface to be consistent with shells.
For geometry bladenlf26.stl detected 0 uncached triangles out of 744
Checked shell refinement in = 0.01 s

Reading features.
Read edgeMesh bladenlf26.eMesh
    points      : 376
    edges       : 372
    boundingBox : (3.05175999529e-05 -0.103073000908 0) (1.20219004154 0.0883788987994 5)

Refinement level according to distance to "bladenlf26.eMesh" (376 points, 372 edges).
    level 0 for all cells within 0 metre.
Read features in = 0.02 s


Determining initial surface intersections
-----------------------------------------

Edge intersection testing:
    Number of edges             : 360600
    Number of edges to retest   : 0
    Number of intersected edges : 0
Edge intersection testing:
    Number of edges             : 360600
    Number of edges to retest   : 360600
    Number of intersected edges : 131
Calculated surface intersections in = 0.24 s

Initial mesh : cells:90000  faces:360600  points:181202
Cells per refinement level:
    0	90000

Adding patches for surface regions
----------------------------------

Patch Type                Region                        
----- ----                ------                        
bladenlf26:

5     wall                bladenlf26_bladenlf26         
6     wall                bladenlf26_bladenlf26FLAP     

Added patches in = 0.01 s

Edge intersection testing:
    Number of edges             : 360600
    Number of edges to retest   : 0
    Number of intersected edges : 131
Selecting decompositionMethod simple [4]

Refinement phase
----------------

Found point (0.1 -0.1 0.051) in cell 18317 on processor 0

Feature refinement iteration 0
------------------------------

Marked for refinement due to explicit features             : 0 cells.
Determined cells to refine in = 0.29 s
Selected for feature refinement : 0 cells (out of 90000)
Stopping refining since too few cells selected.


Surface refinement iteration 0
------------------------------

Marked for refinement due to surface intersection          : 208 cells.
Marked for refinement due to curvature/regions             : 0 cells.
Determined cells to refine in = 0.01 s
Selected for refinement : 208 cells (out of 90000)
Edge intersection testing:
    Number of edges             : 365916
    Number of edges to retest   : 6981
    Number of intersected edges : 538
Refined mesh in = 0.28 s
After refinement surface refinement iteration 0 : cells:91456  faces:365916  points:183714
Cells per refinement level:
    0	89792
    1	1664
Balanced mesh in = 0.81 s
After balancing surface refinement iteration 0 : cells:91456  faces:365916  points:183714
Cells per refinement level:
    0	89792
    1	1664

Surface refinement iteration 1
------------------------------

Marked for refinement due to surface intersection          : 881 cells.
Marked for refinement due to curvature/regions             : 0 cells.
Determined cells to refine in = 0.01 s
Selected for refinement : 936 cells (out of 91456)
Edge intersection testing:
    Number of edges             : 388473
    Number of edges to retest   : 28932
    Number of intersected edges : 2160
Refined mesh in = 0.35 s
After refinement surface refinement iteration 1 : cells:98008  faces:388473  points:193399
Cells per refinement level:
    0	89736
    1	1232
    2	7040
Balanced mesh in = 0.86 s
After balancing surface refinement iteration 1 : cells:98008  faces:388473  points:193399
Cells per refinement level:
    0	89736
    1	1232
    2	7040

Surface refinement iteration 2
------------------------------

Marked for refinement due to surface intersection          : 3600 cells.
Marked for refinement due to curvature/regions             : 0 cells.
Determined cells to refine in = 0.02 s
Selected for refinement : 3836 cells (out of 98008)
Edge intersection testing:
    Number of edges             : 478230
    Number of edges to retest   : 115391
    Number of intersected edges : 8712
Refined mesh in = 0.54 s
After refinement surface refinement iteration 2 : cells:124860  faces:478230  points:229952
Cells per refinement level:
    0	89714
    1	1190
    2	5188
    3	28768
Balanced mesh in = 1.39 s
After balancing surface refinement iteration 2 : cells:124860  faces:478230  points:229952
Cells per refinement level:
    0	89714
    1	1190
    2	5188
    3	28768

Surface refinement iteration 3
------------------------------

Marked for refinement due to surface intersection          : 14580 cells.
Marked for refinement due to curvature/regions             : 0 cells.
Determined cells to refine in = 0.06 s
Selected for refinement : 15720 cells (out of 124860)
Edge intersection testing:
    Number of edges             : 840123
    Number of edges to retest   : 464581
    Number of intersected edges : 34888
Refined mesh in = 1.06 s
After refinement surface refinement iteration 3 : cells:234900  faces:840123  points:372805
Cells per refinement level:
    0	89696
    1	1208
    2	5196
    3	22192
    4	116608
Balanced mesh in = 2.19 s
After balancing surface refinement iteration 3 : cells:234900  faces:840123  points:372805
Cells per refinement level:
    0	89696
    1	1208
    2	5196
    3	22192
    4	116608

Surface refinement iteration 4
------------------------------

Marked for refinement due to surface intersection          : 58640 cells.
Marked for refinement due to curvature/regions             : 0 cells.
Determined cells to refine in = 0.13 s
Selected for refinement : 63697 cells (out of 234900)
Edge intersection testing:
    Number of edges             : 2293914
    Number of edges to retest   : 1861172
    Number of intersected edges : 139664
Refined mesh in = 3.99 s
After refinement surface refinement iteration 4 : cells:680779  faces:2293914  points:936900
Cells per refinement level:
    0	89689
    1	1190
    2	5220
    3	22312
    4	93376
    5	468992
Balanced mesh in = 5.22 s
After balancing surface refinement iteration 4 : cells:680779  faces:2293914  points:936900
Cells per refinement level:
    0	89689
    1	1190
    2	5220
    3	22312
    4	93376
    5	468992

Surface refinement iteration 5
------------------------------

Marked for refinement due to surface intersection          : 136 cells.
Marked for refinement due to curvature/regions             : 3456 cells.
Determined cells to refine in = 0.46 s
Selected for refinement : 3954 cells (out of 680779)
Edge intersection testing:
    Number of edges             : 2388222
    Number of edges to retest   : 138663
    Number of intersected edges : 150720
Refined mesh in = 2.06 s
After refinement surface refinement iteration 5 : cells:708457  faces:2388222  points:976929
Cells per refinement level:
    0	89689
    1	1188
    2	5228
    3	22336
    4	93248
    5	469120
    6	27648
Balanced mesh in = 4.52 s
After balancing surface refinement iteration 5 : cells:708457  faces:2388222  points:976929
Cells per refinement level:
    0	89689
    1	1188
    2	5228
    3	22336
    4	93248
    5	469120
    6	27648

Surface refinement iteration 6
------------------------------

Marked for refinement due to surface intersection          : 0 cells.
Marked for refinement due to curvature/regions             : 4768 cells.
Determined cells to refine in = 0.46 s
Selected for refinement : 6384 cells (out of 708457)
Edge intersection testing:
    Number of edges             : 2542938
    Number of edges to retest   : 227675
    Number of intersected edges : 169024
Refined mesh in = 1.93 s
After refinement surface refinement iteration 6 : cells:753145  faces:2542938  points:1044156
Cells per refinement level:
    0	89689
    1	1188
    2	5212
    3	22416
    4	93424
    5	469152
    6	36224
    7	35840
Balanced mesh in = 6.1 s
After balancing surface refinement iteration 6 : cells:753145  faces:2542938  points:1044156
Cells per refinement level:
    0	89689
    1	1188
    2	5212
    3	22416
    4	93424
    5	469152
    6	36224
    7	35840

Surface refinement iteration 7
------------------------------

Marked for refinement due to surface intersection          : 0 cells.
Marked for refinement due to curvature/regions             : 576 cells.
Determined cells to refine in = 0.86 s
Selected for refinement : 672 cells (out of 753145)
Edge intersection testing:
    Number of edges             : 2559198
    Number of edges to retest   : 29427
    Number of intersected edges : 171328
Refined mesh in = 3.16 s
After refinement surface refinement iteration 7 : cells:757849  faces:2559198  points:1051084
Cells per refinement level:
    0	89689
    1	1188
    2	5212
    3	22416
    4	93424
    5	469056
    6	36416
    7	40448
Balanced mesh in = 11.98 s
After balancing surface refinement iteration 7 : cells:757849  faces:2559198  points:1051084
Cells per refinement level:
    0	89689
    1	1188
    2	5212
    3	22416
    4	93424
    5	469056
    6	36416
    7	40448

Surface refinement iteration 8
------------------------------

Marked for refinement due to surface intersection          : 0 cells.
Marked for refinement due to curvature/regions             : 128 cells.
Determined cells to refine in = 1.01 s
Selected for refinement : 192 cells (out of 757849)
Edge intersection testing:
    Number of edges             : 2563626
    Number of edges to retest   : 10528
    Number of intersected edges : 171776
Refined mesh in = 2.9 s
After refinement surface refinement iteration 8 : cells:759193  faces:2563626  points:1052826
Cells per refinement level:
    0	89689
    1	1188
    2	5212
    3	22416
    4	93424
    5	468992
    6	36800
    7	41472
Balanced mesh in = 5.23 s
After balancing surface refinement iteration 8 : cells:759193  faces:2563626  points:1052826
Cells per refinement level:
    0	89689
    1	1188
    2	5212
    3	22416
    4	93424
    5	468992
    6	36800
    7	41472

Surface refinement iteration 9
------------------------------

Marked for refinement due to surface intersection          : 0 cells.
Marked for refinement due to curvature/regions             : 64 cells.
Determined cells to refine in = 1.01 s
Selected for refinement : 112 cells (out of 759193)
Edge intersection testing:
    Number of edges             : 2565987
    Number of edges to retest   : 6680
    Number of intersected edges : 171776
Refined mesh in = 5.36 s
After refinement surface refinement iteration 9 : cells:759977  faces:2565987  points:1053619
Cells per refinement level:
    0	89689
    1	1188
    2	5212
    3	22416
    4	93408
    5	469088
    6	36992
    7	41984
Balanced mesh in = 13.17 s
After balancing surface refinement iteration 9 : cells:759977  faces:2565987  points:1053619
Cells per refinement level:
    0	89689
    1	1188
    2	5212
    3	22416
    4	93408
    5	469088
    6	36992
    7	41984

Surface refinement iteration 10
------------------------------

Marked for refinement due to surface intersection          : 0 cells.
Marked for refinement due to curvature/regions             : 0 cells.
Determined cells to refine in = 1.02 s
Selected for refinement : 0 cells (out of 759977)
Stopping refining since too few cells selected.


Removing mesh beyond surface intersections
------------------------------------------

Setting cellZones according to locationsInMesh:
Location : (0.1 -0.1 0.051)
    cellZone : none

For cellZone none found point (0.1 -0.1 0.051) in global region 0 out of 3 regions.
Keeping all cells containing inside points
Selected for keeping : 759977 cells.
Edge intersection testing:
    Number of edges             : 2565987
    Number of edges to retest   : 0
    Number of intersected edges : 171776
Setting cellZones according to locationsInMesh:
Location : (0.1 -0.1 0.051)
    cellZone : none

For cellZone none found point (0.1 -0.1 0.051) in global region 0 out of 3 regions.
Keeping all cells containing inside points
Selected for keeping : 605231 cells.
Edge intersection testing:
    Number of edges             : 2134936
    Number of edges to retest   : 179669
    Number of intersected edges : 171776

Shell refinement iteration 0
----------------------------

Marked for refinement due to distance to explicit features : 0 cells.
Marked for refinement due to refinement shells             : 1355 cells.
Determined cells to refine in = 12.65 s
Selected for internal refinement : 103140 cells (out of 605231)
Edge intersection testing:
    Number of edges             : 4385998
    Number of edges to retest   : 3324622
    Number of intersected edges : 202080
Refined mesh in = 11.07 s
After refinement shell refinement iteration 0 : cells:1327211  faces:4385998  points:1735803
Cells per refinement level:
    0	88096
    1	12898
    2	8820
    3	30118
    4	108868
    5	767169
    6	122598
    7	188644
Balanced mesh in = 13.64 s
After balancing shell refinement iteration 0 : cells:1327211  faces:4385998  points:1735803
Cells per refinement level:
    0	88096
    1	12898
    2	8820
    3	30118
    4	108868
    5	767169
    6	122598
    7	188644

Shell refinement iteration 1
----------------------------

Marked for refinement due to distance to explicit features : 0 cells.
Marked for refinement due to refinement shells             : 1 cells.
Determined cells to refine in = 1.58 s
Selected for internal refinement : 51087 cells (out of 1327211)
Edge intersection testing:
    Number of edges             : 5504980
    Number of edges to retest   : 2228489
    Number of intersected edges : 215751
Refined mesh in = 16.26 s
After refinement shell refinement iteration 1 : cells:1684820  faces:5504980  points:2139140
Cells per refinement level:
    0	88020
    1	12894
    2	11304
    3	40872
    4	164700
    5	859864
    6	161690
    7	345476
Balanced mesh in = 18.54 s
After balancing shell refinement iteration 1 : cells:1684820  faces:5504980  points:2139140
Cells per refinement level:
    0	88020
    1	12894
    2	11304
    3	40872
    4	164700
    5	859864
    6	161690
    7	345476

Shell refinement iteration 2
----------------------------

Marked for refinement due to distance to explicit features : 0 cells.
Marked for refinement due to refinement shells             : 0 cells.
Determined cells to refine in = 1.61 s
Selected for internal refinement : 12106 cells (out of 1684820)
Edge intersection testing:
    Number of edges             : 5768191
    Number of edges to retest   : 630315
    Number of intersected edges : 217095
Refined mesh in = 16.51 s
After refinement shell refinement iteration 2 : cells:1769562  faces:5768191  points:2232608
Cells per refinement level:
    0	87963
    1	12912
    2	13108
    3	51082
    4	190356
    5	866575
    6	201642
    7	345924
Balanced mesh in = 25.58 s
After balancing shell refinement iteration 2 : cells:1769562  faces:5768191  points:2232608
Cells per refinement level:
    0	87963
    1	12912
    2	13108
    3	51082
    4	190356
    5	866575
    6	201642
    7	345924

Shell refinement iteration 3
----------------------------

Marked for refinement due to distance to explicit features : 0 cells.
Marked for refinement due to refinement shells             : 0 cells.
Determined cells to refine in = 1.62 s
Selected for internal refinement : 1590 cells (out of 1769562)
Edge intersection testing:
    Number of edges             : 5803108
    Number of edges to retest   : 99020
    Number of intersected edges : 217095
Refined mesh in = 12.84 s
After refinement shell refinement iteration 3 : cells:1780692  faces:5803108  points:2245226
Cells per refinement level:
    0	87923
    1	13068
    2	13860
    3	55362
    4	191352
    5	871385
    6	201818
    7	345924
Balanced mesh in = 21.91 s
After balancing shell refinement iteration 3 : cells:1780692  faces:5803108  points:2245226
Cells per refinement level:
    0	87923
    1	13068
    2	13860
    3	55362
    4	191352
    5	871385
    6	201818
    7	345924

Shell refinement iteration 4
----------------------------

Marked for refinement due to distance to explicit features : 0 cells.
Marked for refinement due to refinement shells             : 0 cells.
Determined cells to refine in = 3.88 s
Selected for internal refinement : 201 cells (out of 1780692)
Edge intersection testing:
    Number of edges             : 5807554
    Number of edges to retest   : 14531
    Number of intersected edges : 217095
Refined mesh in = 15.2 s
After refinement shell refinement iteration 4 : cells:1782099  faces:5807554  points:2246851
Cells per refinement level:
    0	87912
    1	13072
    2	14504
    3	55518
    4	191886
    5	871465
    6	201818
    7	345924
Balanced mesh in = 16.51 s
After balancing shell refinement iteration 4 : cells:1782099  faces:5807554  points:2246851
Cells per refinement level:
    0	87912
    1	13072
    2	14504
    3	55518
    4	191886
    5	871465
    6	201818
    7	345924

Shell refinement iteration 5
----------------------------

Marked for refinement due to distance to explicit features : 0 cells.
Marked for refinement due to refinement shells             : 0 cells.
Determined cells to refine in = 1.7 s
Selected for internal refinement : 16 cells (out of 1782099)
Stopping refining since too few cells selected.


Dangling coarse cells refinement iteration 0
--------------------------------------------

Determined cells to refine in = 0.1 s
Selected for refinement : 0 cells (out of 1782099)
Stopping refining since too few cells selected.


Dangling coarse cells refinement iteration 0
--------------------------------------------

Determined cells to refine in = 0.12 s
Selected for refinement : 0 cells (out of 1782099)
Stopping refining since too few cells selected.


Refinement transition refinement iteration 0
--------------------------------------------

Determined cells to refine in = 0.21 s
Selected for refinement : 0 cells (out of 1782099)
Stopping refining since too few cells selected.


Directional shell refinement iteration 0
----------------------------------------

Determined cells to refine in = 0.06 s
Selected for direction x refinement : 0 cells (out of 1782099)
Determined cells to refine in = 0.06 s
Selected for direction y refinement : 0 cells (out of 1782099)
Determined cells to refine in = 0.05 s
Selected for direction z refinement : 0 cells (out of 1782099)
Stopping refining since no cells selected.


Splitting mesh at surface intersections
---------------------------------------

Introducing baffles for 217095 faces that are intersected by the surface.

Setting cellZones according to locationsInMesh:
Location : (0.1 -0.1 0.051)
    cellZone : none

For cellZone none found point (0.1 -0.1 0.051) in global region 0 out of 3 regions.
Edge intersection testing:
    Number of edges             : 6024649
    Number of edges to retest   : 1463988
    Number of intersected edges : 429483
Created baffles in = 8.05 s


After introducing baffles : cells:1782099  faces:6024649  points:2247180
Cells per refinement level:
    0	87912
    1	13072
    2	14504
    3	55518
    4	191886
    5	871465
    6	201818
    7	345924

Introducing baffles to block off problem cells
----------------------------------------------

markFacesOnProblemCells : marked 277814 additional internal faces to be converted into baffles.
Analyzed problem cells in = 7.08 s


Introducing baffles to delete problem cells.

Edge intersection testing:
    Number of edges             : 6302463
    Number of edges to retest   : 892844
    Number of intersected edges : 429483
Created baffles in = 7.34 s


After introducing baffles : cells:1782099  faces:6302463  points:2247288
Cells per refinement level:
    0	87912
    1	13072
    2	14504
    3	55518
    4	191886
    5	871465
    6	201818
    7	345924
Setting cellZones according to locationsInMesh:
Location : (0.1 -0.1 0.051)
    cellZone : none

For cellZone none found point (0.1 -0.1 0.051) in global region 0 out of 133860 regions.
Edge intersection testing:
    Number of edges             : 6302463
    Number of edges to retest   : 1660844
    Number of intersected edges : 429483

Remove unreachable sections of mesh
-----------------------------------

Keeping all cells containing points 1((0.1 -0.1 0.051))
Selected for keeping : 1339590 cells.
Edge intersection testing:
    Number of edges             : 4388447
    Number of edges to retest   : 0
    Number of intersected edges : 215494
Split mesh in = 22.93 s


After subsetting : cells:1339590  faces:4388447  points:1716781
Cells per refinement level:
    0	87912
    1	12586
    2	9585
    3	38736
    4	149603
    5	669751
    6	154159
    7	217258

Introducing zones for interfaces
--------------------------------

Setting cellZones according to locationsInMesh:
Location : (0.1 -0.1 0.051)
    cellZone : none

For cellZone none found point (0.1 -0.1 0.051) in global region 0 out of 1 regions.
Setting faceZones according to neighbouring cellZones:

Edge intersection testing:
    Number of edges             : 4388447
    Number of edges to retest   : 0
    Number of intersected edges : 215494

Handling cells with snap problems
---------------------------------

Introducing baffles for 215494 faces that are intersected by the surface.

Setting cellZones according to locationsInMesh:
Location : (0.1 -0.1 0.051)
    cellZone : none

For cellZone none found point (0.1 -0.1 0.051) in global region 0 out of 1 regions.
Edge intersection testing:
    Number of edges             : 4388447
    Number of edges to retest   : 726188
    Number of intersected edges : 215494
Created baffles in = 12.15 s


After introducing baffles : cells:1339590  faces:4388447  points:1716781
Cells per refinement level:
    0	87912
    1	12586
    2	9585
    3	38736
    4	149603
    5	669751
    6	154159
    7	217258

Introducing baffles to block off problem cells
----------------------------------------------

markFacesOnProblemCells : marked 0 additional internal faces to be converted into baffles.
Analyzed problem cells in = 3.58 s


Introducing baffles to delete problem cells.

Created baffles in = 0.55 s


After introducing baffles : cells:1339590  faces:4388447  points:1716781
Cells per refinement level:
    0	87912
    1	12586
    2	9585
    3	38736
    4	149603
    5	669751
    6	154159
    7	217258
Setting cellZones according to locationsInMesh:
Location : (0.1 -0.1 0.051)
    cellZone : none

For cellZone none found point (0.1 -0.1 0.051) in global region 0 out of 1 regions.
Edge intersection testing:
    Number of edges             : 4388447
    Number of edges to retest   : 726188
    Number of intersected edges : 215494

Remove unreachable sections of mesh
-----------------------------------

Split mesh in = 11.53 s


After subsetting : cells:1339590  faces:4388447  points:1716781
Cells per refinement level:
    0	87912
    1	12586
    2	9585
    3	38736
    4	149603
    5	669751
    6	154159
    7	217258

Merge free-standing baffles
---------------------------

freeStandingBaffles : detected 128 free-standing baffles out of 128

freeStandingBaffles : detected 0 planar (within 30 degrees) free-standing baffles out of 128

Detected free-standing baffles : 0
Merged free-standing baffles in = 1.33 s


dupNonManifoldPoints : Found : 129 non-manifold points (out of 1725247)
Edge intersection testing:
    Number of edges             : 4388447
    Number of edges to retest   : 0
    Number of intersected edges : 215494
Detected unsplittable baffles : 0

Merge refined boundary faces
----------------------------

Merging 2193 sets of faces.

Edge intersection testing:
    Number of edges             : 4383246
    Number of edges to retest   : 14334
    Number of intersected edges : 210293

Undo iteration 0
----------------
Checking faces in error :
    non-orthogonality > 65  degrees                        : 0
    faces with face pyramid volume < 1e-20                 : 0
    faces with face-decomposition tet quality < 1e-15      : 0
    faces with concavity > 80  degrees                     : 0
    faces with skewness > 4   (internal) or 20  (boundary) : 0
    faces with interpolation weights (0..1)  < 0.05        : 0
    faces with volume ratio of neighbour cells < 0.01      : 0
    faces with face twist < 0.02                           : 0
    faces on cells with determinant < 1e-08                : 0

Merging all points on surface that
- are used by only two boundary faces and
- make an angle with a cosine of more than 0.707106781187.

Removing 4109 straight edge points ...

Edge intersection testing:
    Number of edges             : 4383246
    Number of edges to retest   : 17100
    Number of intersected edges : 210293

Undo iteration 0
----------------
Checking faces in error :
    non-orthogonality > 65  degrees                        : 0
    faces with face pyramid volume < 1e-20                 : 0
    faces with face-decomposition tet quality < 1e-15      : 0
    faces with concavity > 80  degrees                     : 0
    faces with skewness > 4   (internal) or 20  (boundary) : 0
    faces with interpolation weights (0..1)  < 0.05        : 0
    faces with volume ratio of neighbour cells < 0.01      : 0
    faces with face twist < 0.02                           : 0
    faces on cells with determinant < 1e-08                : 0

Doing final balancing
---------------------

Found 0 zoned faces to keep together.
Found 0 separated coupled faces to keep together.
Refined mesh : cells:1339590  faces:4383246  points:1711297
Cells per refinement level:
    0	87912
    1	12586
    2	9585
    3	38736
    4	149603
    5	669751
    6	154159
    7	217258
Writing mesh to time constant
Wrote mesh in = 51.79 s.
Mesh refined in = 396.44 s.

Morphing phase
--------------

Duplicating 0 points on faceZones of type boundary
Snapping to features in 5 iterations ...
Constructing mesh displacer ...
Using mesh parameters 
{
    maxNonOrtho     65;
    maxBoundarySkewness 20;
    maxInternalSkewness 4;
    maxConcave      80;
    minVol          1e-20;
    minTetQuality   1e-15;
    minArea         -1;
    minTwist        0.02;
    minDeterminant  1e-08;
    minFaceWeight   0.05;
    minVolRatio     0.01;
    minTriangleTwist -1;
    relaxed
    {
        maxNonOrtho     75;
        minTetQuality   -1e+30;
        minTwist        -1;
    }
    nSmoothScale    4;
    errorReduction  0.75;
}


Checking initial mesh ...
Checking faces in error :
    non-orthogonality > 65  degrees                        : 0
    faces with face pyramid volume < 1e-20                 : 0
    faces with face-decomposition tet quality < 1e-15      : 0
    faces with concavity > 80  degrees                     : 0
    faces with skewness > 4   (internal) or 20  (boundary) : 0
    faces with interpolation weights (0..1)  < 0.05        : 0
    faces with volume ratio of neighbour cells < 0.01      : 0
    faces with face twist < 0.02                           : 0
    faces on cells with determinant < 1e-08                : 0
Detected 0 illegal faces (concave, zero area or negative cell pyramid volume)
Checked initial mesh in = 10.05 s


Smoothing patch points ...
Smoothing iteration 0
Found 258 non-manifold point(s).

Scaling iteration 0
Moving mesh using displacement scaling : min:1  max:1
Checking faces in error :
    non-orthogonality > 65  degrees                        : 0
    faces with face pyramid volume < 1e-20                 : 0
    faces with face-decomposition tet quality < 1e-15      : 0
    faces with concavity > 80  degrees                     : 0
    faces with skewness > 4   (internal) or 20  (boundary) : 0
    faces with interpolation weights (0..1)  < 0.05        : 0
    faces with volume ratio of neighbour cells < 0.01      : 0
    faces with face twist < 0.02                           : 0
    faces on cells with determinant < 1e-08                : 0
Successfully moved mesh

Smoothing iteration 1
Found 0 non-manifold point(s).

Scaling iteration 0
Moving mesh using displacement scaling : min:1  max:1
Checking faces in error :
    non-orthogonality > 65  degrees                        : 0
    faces with face pyramid volume < 1e-20                 : 0
    faces with face-decomposition tet quality < 1e-15      : 0
    faces with concavity > 80  degrees                     : 0
    faces with skewness > 4   (internal) or 20  (boundary) : 0
    faces with interpolation weights (0..1)  < 0.05        : 0
    faces with volume ratio of neighbour cells < 0.01      : 0
    faces with face twist < 0.02                           : 0
    faces on cells with determinant < 1e-08                : 0
Successfully moved mesh

Smoothing iteration 2
Found 0 non-manifold point(s).

Scaling iteration 0
Moving mesh using displacement scaling : min:1  max:1
Checking faces in error :
    non-orthogonality > 65  degrees                        : 0
    faces with face pyramid volume < 1e-20                 : 0
    faces with face-decomposition tet quality < 1e-15      : 0
    faces with concavity > 80  degrees                     : 0
    faces with skewness > 4   (internal) or 20  (boundary) : 0
    faces with interpolation weights (0..1)  < 0.05        : 0
    faces with volume ratio of neighbour cells < 0.01      : 0
    faces with face twist < 0.02                           : 0
    faces on cells with determinant < 1e-08                : 0
Successfully moved mesh

Patch points smoothed in = 22.1 s



Morph iteration 0
-----------------
Calculating patchDisplacement as distance to nearest surface point ...
    non-zone points : attract to local region on surface only
    zone points     : attract to local region on surface only

Wanted displacement : average:9.53475624332e-05 min:1.53862406606e-08 max:0.000412621677076
Calculated surface displacement in = 0.32 s


Detecting near surfaces ...
Overriding nearest with intersection of close gaps at 0 out of 218824 points.
Overriding displacement on features :
   implicit features    : false
   explicit features    : true
   multi-patch features : false

Detected 0 baffle edges out of 430840 edges.
Baffle points     : 0 of which attracted to :
    feature point : 0
    feature edge  : 0
    rest          : 0

Initially selected 13471 mesh points out of 218824 for reverse attraction.
Selected 30656 mesh points out of 218824 for reverse attraction.
Stringing feature edges : changed 0 points
Attraction:
    linear   : max:(-6.96184001131e-06 0.000412562942078 -1.38777878078e-17) avg:(5.2706254807e-06 8.51513826309e-07 -1.5640019854e-15)
    feature  : max:(0 0 0) avg:(0 0 0)
Feature analysis : total master points :218444 of which attracted to :
    feature point   : 0
    feature edge    : 0
    nearest surface : 0
    rest            : 218444

--> FOAM Warning : Displacement (-2.64790645465e-07 -1.08678789983e-06 2.54097180766e-19) at mesh point 36456 coord (0.511118079975 -0.0667618910465 0.06105) points through the surrounding patch faces
Smoothing displacement ...
Iteration 0
Iteration 10
Iteration 20
Iteration 30
Displacement smoothed in = 9.33 s


Moving mesh ...

Iteration 0
Moving mesh using displacement scaling : min:1  max:1
Checking faces in error :
    non-orthogonality > 65  degrees                        : 0
    faces with face pyramid volume < 1e-20                 : 0
    faces with face-decomposition tet quality < 1e-15      : 0
    faces with concavity > 80  degrees                     : 0
    faces with skewness > 4   (internal) or 20  (boundary) : 0
    faces with interpolation weights (0..1)  < 0.05        : 0
    faces with volume ratio of neighbour cells < 0.01      : 0
    faces with face twist < 0.02                           : 0
    faces on cells with determinant < 1e-08                : 0
Successfully moved mesh
Moved mesh in = 3.3 s



Morph iteration 1
-----------------
Calculating patchDisplacement as distance to nearest surface point ...
    non-zone points : attract to local region on surface only
    zone points     : attract to local region on surface only

Wanted displacement : average:8.27201144931e-05 min:6.76632601813e-10 max:0.000347472118011
Calculated surface displacement in = 0.14 s


Detecting near surfaces ...
Overriding nearest with intersection of close gaps at 0 out of 218824 points.
Overriding displacement on features :
   implicit features    : false
   explicit features    : true
   multi-patch features : false

Detected 0 baffle edges out of 430840 edges.
Baffle points     : 0 of which attracted to :
    feature point : 0
    feature edge  : 0
    rest          : 0

Initially selected 13471 mesh points out of 218824 for reverse attraction.
Selected 30656 mesh points out of 218824 for reverse attraction.
Stringing feature edges : changed 0 points
Attraction:
    linear   : max:(-5.86262290225e-06 0.000347422656786 0) avg:(4.21968680608e-06 6.82131102245e-07 2.5807806522e-15)
    feature  : max:(0 0 0) avg:(0 0 0)
Feature analysis : total master points :218444 of which attracted to :
    feature point   : 0
    feature edge    : 0
    nearest surface : 0
    rest            : 218444

--> FOAM Warning : Displacement (3.00133057164e-07 -1.29634213862e-05 1.93626678963e-18) at mesh point 36456 coord (0.511117815184 -0.0667629778344 0.06105) points through the surrounding patch faces
Smoothing displacement ...
Iteration 0
Iteration 10
Iteration 20
Iteration 30
Displacement smoothed in = 10.15 s


Moving mesh ...

Iteration 0
Moving mesh using displacement scaling : min:1  max:1
Checking faces in error :
    non-orthogonality > 65  degrees                        : 0
    faces with face pyramid volume < 1e-20                 : 0
    faces with face-decomposition tet quality < 1e-15      : 0
    faces with concavity > 80  degrees                     : 0
    faces with skewness > 4   (internal) or 20  (boundary) : 0
    faces with interpolation weights (0..1)  < 0.05        : 0
    faces with volume ratio of neighbour cells < 0.01      : 0
    faces with face twist < 0.02                           : 0
    faces on cells with determinant < 1e-08                : 0
Successfully moved mesh
Moved mesh in = 2.66 s



Morph iteration 2
-----------------
Calculating patchDisplacement as distance to nearest surface point ...
    non-zone points : attract to local region on surface only
    zone points     : attract to local region on surface only

Wanted displacement : average:5.93827947735e-05 min:1.90478814232e-09 max:0.000231958352412
Calculated surface displacement in = 0.21 s


Detecting near surfaces ...
Overriding nearest with intersection of close gaps at 0 out of 218824 points.
Overriding displacement on features :
   implicit features    : false
   explicit features    : true
   multi-patch features : false

Detected 0 baffle edges out of 430840 edges.
Baffle points     : 0 of which attracted to :
    feature point : 0
    feature edge  : 0
    rest          : 0

Initially selected 13471 mesh points out of 218824 for reverse attraction.
Selected 30656 mesh points out of 218824 for reverse attraction.
Stringing feature edges : changed 0 points
Attraction:
    linear   : max:(-3.91365027214e-06 0.000231925334095 -1.38777878078e-17) avg:(2.53717876438e-06 4.10810183137e-07 3.84434924875e-15)
    feature  : max:(0 0 0) avg:(0 0 0)
Feature analysis : total master points :218444 of which attracted to :
    feature point   : 0
    feature edge    : 0
    nearest surface : 0
    rest            : 218444

--> FOAM Warning : Displacement (1.83201989844e-06 -2.93320719042e-05 3.22611548927e-18) at mesh point 36456 coord (0.511118115317 -0.0667759412558 0.06105) points through the surrounding patch faces
Smoothing displacement ...
Iteration 0
Iteration 10
Iteration 20
Iteration 30
Displacement smoothed in = 9.67 s


Moving mesh ...

Iteration 0
Moving mesh using displacement scaling : min:1  max:1
Checking faces in error :
    non-orthogonality > 65  degrees                        : 0
    faces with face pyramid volume < 1e-20                 : 0
    faces with face-decomposition tet quality < 1e-15      : 0
    faces with concavity > 80  degrees                     : 0
    faces with skewness > 4   (internal) or 20  (boundary) : 0
    faces with interpolation weights (0..1)  < 0.05        : 0
    faces with volume ratio of neighbour cells < 0.01      : 0
    faces with face twist < 0.02                           : 0
    faces on cells with determinant < 1e-08                : 0
Successfully moved mesh
Moved mesh in = 2.86 s



Morph iteration 3
-----------------
Calculating patchDisplacement as distance to nearest surface point ...
    non-zone points : attract to local region on surface only
    zone points     : attract to local region on surface only

Wanted displacement : average:3.21375351174e-05 min:1.35002697702e-09 max:0.000115462735564
Calculated surface displacement in = 0.18 s


Detecting near surfaces ...
Overriding nearest with intersection of close gaps at 0 out of 218824 points.
Overriding displacement on features :
   implicit features    : false
   explicit features    : true
   multi-patch features : false

Detected 0 baffle edges out of 430840 edges.
Baffle points     : 0 of which attracted to :
    feature point : 0
    feature edge  : 0
    rest          : 0

Initially selected 13473 mesh points out of 218824 for reverse attraction.
Selected 30658 mesh points out of 218824 for reverse attraction.
Stringing feature edges : changed 0 points
Attraction:
    linear   : max:(-1.94811164062e-06 0.000115446299919 -1.38777878078e-17) avg:(1.02065909465e-06 1.65628595459e-07 -2.755690402e-15)
    feature  : max:(0 0 0) avg:(0 0 0)
Feature analysis : total master points :218444 of which attracted to :
    feature point   : 0
    feature edge    : 0
    nearest surface : 0
    rest            : 218444

--> FOAM Warning : Displacement (3.05945569236e-06 -3.27859869449e-05 3.84165060134e-18) at mesh point 36456 coord (0.511119947337 -0.0668052733277 0.06105) points through the surrounding patch faces
Smoothing displacement ...
Iteration 0
Iteration 10
Iteration 20
Iteration 30
Displacement smoothed in = 8.94 s


Moving mesh ...

Iteration 0
Moving mesh using displacement scaling : min:1  max:1
Checking faces in error :
    non-orthogonality > 65  degrees                        : 0
    faces with face pyramid volume < 1e-20                 : 0
    faces with face-decomposition tet quality < 1e-15      : 0
    faces with concavity > 80  degrees                     : 0
    faces with skewness > 4   (internal) or 20  (boundary) : 0
    faces with interpolation weights (0..1)  < 0.05        : 0
    faces with volume ratio of neighbour cells < 0.01      : 0
    faces with face twist < 0.02                           : 0
    faces on cells with determinant < 1e-08                : 0
Successfully moved mesh
Moved mesh in = 2.51 s



Morph iteration 4
-----------------
Calculating patchDisplacement as distance to nearest surface point ...
    non-zone points : attract to local region on surface only
    zone points     : attract to local region on surface only

Wanted displacement : average:9.96850632819e-06 min:2.91768869325e-10 max:4.17382493367e-05
Calculated surface displacement in = 0.25 s


Detecting near surfaces ...
Overriding nearest with intersection of close gaps at 0 out of 218824 points.
Overriding displacement on features :
   implicit features    : false
   explicit features    : true
   multi-patch features : false

Detected 0 baffle edges out of 430840 edges.
Baffle points     : 0 of which attracted to :
    feature point : 0
    feature edge  : 0
    rest          : 0

Initially selected 13471 mesh points out of 218824 for reverse attraction.
Selected 30656 mesh points out of 218824 for reverse attraction.
Stringing feature edges : changed 0 points
Attraction:
    linear   : max:(7.57230074089e-07 -4.17313798036e-05 6.85423939828e-14) avg:(2.07978843856e-07 3.35531211874e-08 5.2528139026e-15)
    feature  : max:(0 0 0) avg:(0 0 0)
Feature analysis : total master points :218444 of which attracted to :
    feature point   : 0
    feature edge    : 0
    nearest surface : 0
    rest            : 218444

--> FOAM Warning : Displacement (2.2084986806e-06 -1.62400295983e-05 6.93889390391e-18) at mesh point 36456 coord (0.511123006793 -0.0668380593146 0.06105) points through the surrounding patch faces
Smoothing displacement ...
Iteration 0
Iteration 10
Iteration 20
Iteration 30
Displacement smoothed in = 9.3 s


Moving mesh ...

Iteration 0
Moving mesh using displacement scaling : min:1  max:1
Checking faces in error :
    non-orthogonality > 65  degrees                        : 0
    faces with face pyramid volume < 1e-20                 : 0
    faces with face-decomposition tet quality < 1e-15      : 0
    faces with concavity > 80  degrees                     : 0
    faces with skewness > 4   (internal) or 20  (boundary) : 0
    faces with interpolation weights (0..1)  < 0.05        : 0
    faces with volume ratio of neighbour cells < 0.01      : 0
    faces with face twist < 0.02                           : 0
    faces on cells with determinant < 1e-08                : 0
Successfully moved mesh
Moved mesh in = 3.03 s


Repatching faces according to nearest surface ...
Repatched 0 faces in = 1.53 s


Edge intersection testing:
    Number of edges             : 4383246
    Number of edges to retest   : 1474322
    Number of intersected edges : 212022
Merging 43840 sets of faces.

Edge intersection testing:
    Number of edges             : 4339405
    Number of edges to retest   : 178283
    Number of intersected edges : 168181

Undo iteration 0
----------------
Checking faces in error :
    non-orthogonality > 65  degrees                        : 0
    faces with face pyramid volume < 1e-20                 : 0
    faces with face-decomposition tet quality < 1e-15      : 0
    faces with concavity > 80  degrees                     : 0
    faces with skewness > 4   (internal) or 20  (boundary) : 0
    faces with interpolation weights (0..1)  < 0.05        : 0
    faces with volume ratio of neighbour cells < 0.01      : 0
    faces with face twist < 0.02                           : 0
    faces on cells with determinant < 1e-08                : 0

Merging all points on surface that
- are used by only two boundary faces and
- make an angle with a cosine of more than 0.996194698092.

Removing 44678 straight edge points ...

Edge intersection testing:
    Number of edges             : 4339405
    Number of edges to retest   : 178280
    Number of intersected edges : 168181

Undo iteration 0
----------------
Checking faces in error :
    non-orthogonality > 65  degrees                        : 0
    faces with face pyramid volume < 1e-20                 : 0
    faces with face-decomposition tet quality < 1e-15      : 0
    faces with concavity > 80  degrees                     : 0
    faces with skewness > 4   (internal) or 20  (boundary) : 0
    faces with interpolation weights (0..1)  < 0.05        : 0
    faces with volume ratio of neighbour cells < 0.01      : 0
    faces with face twist < 0.02                           : 0
    faces on cells with determinant < 1e-08                : 0
Snapped mesh : cells:1339590  faces:4339405  points:1666618
Cells per refinement level:
    0	87912
    1	12586
    2	9585
    3	38736
    4	149603
    5	669751
    6	154159
    7	217258
Writing mesh to time constant
Wrote mesh in = 19.08 s.
Mesh snapped in = 115.61 s.
Layer specification as
- final layer thickness ('finalLayerThickness')
- expansion ratio ('expansionRatio')

Shrinking and layer addition phase
----------------------------------

Using mesh parameters 
{
    maxNonOrtho     65;
    maxBoundarySkewness 20;
    maxInternalSkewness 4;
    maxConcave      80;
    minVol          1e-20;
    minTetQuality   1e-15;
    minArea         -1;
    minTwist        0.02;
    minDeterminant  1e-08;
    minFaceWeight   0.05;
    minVolRatio     0.01;
    minTriangleTwist -1;
    relaxed
    {
        maxNonOrtho     75;
        minTetQuality   -1e+30;
        minTwist        -1;
    }
    nSmoothScale    4;
    errorReduction  0.75;
}



Merging all faces of a cell
---------------------------
    - which are on the same patch
    - which make an angle < 180 degrees (cos:-1)
    - as long as the resulting face doesn't become concave by more than 90 degrees
      (0=straight, 180=fully concave)

Merging 706 sets of faces.

Edge intersection testing:
    Number of edges             : 4338699
    Number of edges to retest   : 2832
    Number of intersected edges : 167475

Undo iteration 0
----------------
Checking faces in error :
    non-orthogonality > 65  degrees                        : 0
    faces with face pyramid volume < 1e-20                 : 0
    faces with face-decomposition tet quality < 1e-15      : 0
    faces with concavity > 80  degrees                     : 0
    faces with skewness > 4   (internal) or 20  (boundary) : 0
    faces with interpolation weights (0..1)  < 0.05        : 0
    faces with volume ratio of neighbour cells < 0.01      : 0
    faces with face twist < 0.02                           : 0
    faces on cells with determinant < 1e-08                : 0

Merging all points on surface that
- are used by only two boundary faces and
- make an angle with a cosine of more than -1.

Removing 715 straight edge points ...

Edge intersection testing:
    Number of edges             : 4338699
    Number of edges to retest   : 2847
    Number of intersected edges : 167475

Undo iteration 0
----------------
Checking faces in error :
    non-orthogonality > 65  degrees                        : 0
    faces with face pyramid volume < 1e-20                 : 0
    faces with face-decomposition tet quality < 1e-15      : 0
    faces with concavity > 80  degrees                     : 0
    faces with skewness > 4   (internal) or 20  (boundary) : 0
    faces with interpolation weights (0..1)  < 0.05        : 0
    faces with volume ratio of neighbour cells < 0.01      : 0
    faces with face twist < 0.02                           : 0
    faces on cells with determinant < 1e-08                : 0

Checking mesh manifoldness ...

Checking initial mesh ...
Checking faces in error :
    non-orthogonality > 65  degrees                        : 0
    faces with face pyramid volume < 1e-20                 : 0
    faces with face-decomposition tet quality < 1e-15      : 0
    faces with concavity > 80  degrees                     : 0
    faces with skewness > 4   (internal) or 20  (boundary) : 0
    faces with interpolation weights (0..1)  < 0.05        : 0
    faces with volume ratio of neighbour cells < 0.01      : 0
    faces with face twist < 0.02                           : 0
    faces on cells with determinant < 1e-08                : 0
Detected 0 illegal faces (concave, zero area or negative cell pyramid volume)
Duplicating 0 points on faceZones of type boundary

Handling points with inconsistent layer specification ...
dupNonManifoldPoints : Found : 0 non-manifold points (out of 1674582)

Adding in total 0 inter-processor patches to handle extrusion of non-manifold processor boundaries.

Handling points with inconsistent layer specification ...

Handling non-manifold points ...

Checking patch manifoldness ...
Outside of local patch is multiply connected across edges or points at 0 points.
Set displacement to zero for all 0 non-manifold points

Handling feature edges (angle < 180) ...

Handling cells with warped patch faces ...
Set displacement to zero on 0 warped faces since layer would be > 1000 of the size of the bounding box.

patch                     faces    layers avg thickness[m]
                                          near-wall overall
-----                     -----    ------ --------- -------
bladenlf26_bladenlf26     121856   30     1.38e-06  0.00163 
bladenlf26_bladenlf26FLAP 45619    30     1.24e-06  0.00147 

Selecting externalDisplacementMeshMover displacementMedialAxis
displacementMedialAxis : Calculating distance to Medial Axis ...
fieldSmoother : Smoothing normals ...
    Iteration 0   residual 0.00248824913104
displacementMedialAxis : Inserting points on patch topAndBottom if angle to nearest layer patch > 10 degrees.
displacementMedialAxis : Inserting points on patch inlet if angle to nearest layer patch > 10 degrees.
displacementMedialAxis : Inserting points on patch outlet if angle to nearest layer patch > 10 degrees.
displacementMedialAxis : Inserting points on patch front if angle to nearest layer patch > 10 degrees.
displacementMedialAxis : Inserting points on patch back if angle to nearest layer patch > 10 degrees.
fieldSmoother : Smoothing normals in interior ...
    Iteration 0   residual 0.00542092663286

Layer addition iteration 0
--------------------------
Switched to relaxed meshQuality constraints.

Determining displacement for added points according to pointNormal ...
Detected 0 points with point normal pointing through faces.
Reset displacement at 0 points to average of surrounding points.

displacementMedialAxis : Smoothing using Medial Axis ...
displacementMedialAxis : Reducing layer thickness at 0 nodes where thickness to medial axis distance is large 
displacementMedialAxis : Removing isolated regions ...
- if partially extruded faces make angle < 90
- if exclusively surrounded by non-extruded faces
displacementMedialAxis : Number of isolated points extrusion stopped : 0
fieldSmoother : Smoothing field ...
    Iteration 0   residual 9.20810704395e-07
displacementMedialAxis : Moving mesh ...
displacementMedialAxis : Iteration 0
Moving mesh using displacement scaling : min:1  max:1
Checking faces in error :
    non-orthogonality > 75  degrees                        : 246
    faces with face pyramid volume < 1e-20                 : 0
    faces with concavity > 80  degrees                     : 32
    faces with skewness > 4   (internal) or 20  (boundary) : 0
    faces with interpolation weights (0..1)  < 0.05        : 1
    faces with volume ratio of neighbour cells < 0.01      : 0
    faces on cells with determinant < 1e-08                : 0
displacementMedialAxis : Iteration 1
Moving mesh using displacement scaling : min:0.75  max:1
Checking faces in error :
    non-orthogonality > 75  degrees                        : 0
    faces with face pyramid volume < 1e-20                 : 0
    faces with concavity > 80  degrees                     : 0
    faces with skewness > 4   (internal) or 20  (boundary) : 0
    faces with interpolation weights (0..1)  < 0.05        : 2
    faces with volume ratio of neighbour cells < 0.01      : 0
    faces on cells with determinant < 1e-08                : 0
displacementMedialAxis : Iteration 2
Moving mesh using displacement scaling : min:0.5625  max:1
Checking faces in error :
    non-orthogonality > 75  degrees                        : 0
    faces with face pyramid volume < 1e-20                 : 0
    faces with concavity > 80  degrees                     : 0
    faces with skewness > 4   (internal) or 20  (boundary) : 0
    faces with interpolation weights (0..1)  < 0.05        : 2
    faces with volume ratio of neighbour cells < 0.01      : 0
    faces on cells with determinant < 1e-08                : 0
displacementMedialAxis : Iteration 3
Moving mesh using displacement scaling : min:0.421875  max:1
Checking faces in error :
    non-orthogonality > 75  degrees                        : 0
    faces with face pyramid volume < 1e-20                 : 0
    faces with concavity > 80  degrees                     : 0
    faces with skewness > 4   (internal) or 20  (boundary) : 0
    faces with interpolation weights (0..1)  < 0.05        : 3
    faces with volume ratio of neighbour cells < 0.01      : 0
    faces on cells with determinant < 1e-08                : 0
displacementMedialAxis : Iteration 4
Moving mesh using displacement scaling : min:0.31640625  max:1
Checking faces in error :
    non-orthogonality > 75  degrees                        : 0
    faces with face pyramid volume < 1e-20                 : 0
    faces with concavity > 80  degrees                     : 0
    faces with skewness > 4   (internal) or 20  (boundary) : 0
    faces with interpolation weights (0..1)  < 0.05        : 4
    faces with volume ratio of neighbour cells < 0.01      : 0
    faces on cells with determinant < 1e-08                : 0
displacementMedialAxis : Iteration 5
displacementMedialAxis : Displacement scaling for error reduction set to 0.
Moving mesh using displacement scaling : min:0.2373046875  max:1
Checking faces in error :
    non-orthogonality > 75  degrees                        : 0
    faces with face pyramid volume < 1e-20                 : 0
    faces with concavity > 80  degrees                     : 0
    faces with skewness > 4   (internal) or 20  (boundary) : 0
    faces with interpolation weights (0..1)  < 0.05        : 4
    faces with volume ratio of neighbour cells < 0.01      : 0
    faces on cells with determinant < 1e-08                : 0
displacementMedialAxis : Iteration 6
Moving mesh using displacement scaling : min:0  max:1
Checking faces in error :
    non-orthogonality > 75  degrees                        : 0
    faces with face pyramid volume < 1e-20                 : 0
    faces with concavity > 80  degrees                     : 0
    faces with skewness > 4   (internal) or 20  (boundary) : 0
    faces with interpolation weights (0..1)  < 0.05        : 0
    faces with volume ratio of neighbour cells < 0.01      : 0
    faces on cells with determinant < 1e-08                : 0
displacementMedialAxis : Successfully moved mesh
displacementMedialAxis : Finished moving mesh ...
truncateDisplacement : Unextruded 0 faces due to non-consecutive vertices being extruded.
truncateDisplacement : Unextruded 0 faces due to stringed edges with inconsistent extrusion.

Setting up information for layer truncation ...
--------------------------------------------------------------------------
Primary job  terminated normally, but 1 process returned
a non-zero exit code. Per user-direction, the job has been aborted.
--------------------------------------------------------------------------
--------------------------------------------------------------------------
mpirun noticed that process rank 2 with PID 0 on node LAPTOP-LJVLTNH1 exited on signal 9 (Killed).
--------------------------------------------------------------------------
cd /mnt/c/Users/Tushar/Desktop/OpenFoamToolchain-NEW/OpenFoamToolchain/Simulation_Outputs/test_1/snappyHexMesh && mpirun -np 4 snappyHexMesh -overwrite -parallel: Killed
/*---------------------------------------------------------------------------*\
| =========                 |                                                 |
| \\      /  F ield         | OpenFOAM: The Open Source CFD Toolbox           |
|  \\    /   O peration     | Version:  2012                                  |
|   \\  /    A nd           | Website:  www.openfoam.com                      |
|    \\/     M anipulation  |                                                 |
\*---------------------------------------------------------------------------*/
Build  : _269d0ffd5c-20210619 OPENFOAM=2012 patch=210618
Arch   : "LSB;label=32;scalar=64"
Exec   : reconstructParMesh -constant
Date   : Nov 01 2021
Time   : 12:44:58
Host   : LAPTOP-LJVLTNH1
PID    : 13432
I/O    : uncollated
Case   : /mnt/c/Users/Tushar/Desktop/OpenFoamToolchain-NEW/OpenFoamToolchain/Simulation_Outputs/test_1/snappyHexMesh
nProcs : 1
trapFpe: Floating point exception trapping enabled (FOAM_SIGFPE).
fileModificationChecking : Monitoring run-time modified files using timeStampMaster (fileModificationSkew 5, maxFileModificationPolls 20)
allowSystemOperations : Allowing user-supplied system call operations

// * * * * * * * * * * * * * * * * * * * * * * * * * * * * * * * * * * * * * //
Create time

This is an experimental tool which tries to merge individual processor
meshes back into one master mesh. Use it if the original master mesh has
been deleted or if the processor meshes have been modified (topology change).
This tool will write the resulting mesh to a new time step and construct
xxxxProcAddressing files in the processor meshes so reconstructPar can be
used to regenerate the fields on the master mesh.

Not well tested & use at your own risk!

Merge tolerance : 1e-07
Write tolerance : 1e-12
Doing geometric matching on correct procBoundaries only.
This assumes a correct decomposition.
Found 4 processor directories

Reading database "snappyHexMesh/processor0"
Reading database "snappyHexMesh/processor1"
Reading database "snappyHexMesh/processor2"
Reading database "snappyHexMesh/processor3"
Time = constant

Reading points from "snappyHexMesh/processor0" for time = constant

Reading points from "snappyHexMesh/processor1" for time = constant

Reading points from "snappyHexMesh/processor2" for time = constant

Reading points from "snappyHexMesh/processor3" for time = constant

Overall mesh bounding box  : (-100 -100 0.05) (100 100 0.0721)
Relative tolerance         : 1e-07
Absolute matching distance : 2.82842713338e-05

Merging mesh 0 with 1
Merging mesh 2 with 3
Merging mesh 0 with 2
Reading mesh to add from "snappyHexMesh/processor0" for time = constant


Reading mesh to add from "snappyHexMesh/processor1" for time = constant


Reading mesh to add from "snappyHexMesh/processor2" for time = constant


Reading mesh to add from "snappyHexMesh/processor3" for time = constant


mergeSharedPoints : detected 0 points that are to be merged.

Writing merged mesh to "/mnt/c/Users/Tushar/Desktop/OpenFoamToolchain-NEW/OpenFoamToolchain/Simulation_Outputs/test_1/snappyHexMesh/constant"

Reconstructing the addressing from the processor meshes to the newly reconstructed mesh

Reading processor 0 mesh from "snappyHexMesh/processor0"
Writing pointProcAddressing to "snappyHexMesh/processor0/constant/polyMesh"
Writing faceProcAddressing to "snappyHexMesh/processor0/constant/polyMesh"
Writing cellProcAddressing to "snappyHexMesh/processor0/constant/polyMesh"
Writing boundaryProcAddressing to "snappyHexMesh/processor0/constant/polyMesh"

Reading processor 1 mesh from "snappyHexMesh/processor1"
Writing pointProcAddressing to "snappyHexMesh/processor1/constant/polyMesh"
Writing faceProcAddressing to "snappyHexMesh/processor1/constant/polyMesh"
Writing cellProcAddressing to "snappyHexMesh/processor1/constant/polyMesh"
Writing boundaryProcAddressing to "snappyHexMesh/processor1/constant/polyMesh"

Reading processor 2 mesh from "snappyHexMesh/processor2"
Writing pointProcAddressing to "snappyHexMesh/processor2/constant/polyMesh"
Writing faceProcAddressing to "snappyHexMesh/processor2/constant/polyMesh"
Writing cellProcAddressing to "snappyHexMesh/processor2/constant/polyMesh"
Writing boundaryProcAddressing to "snappyHexMesh/processor2/constant/polyMesh"

Reading processor 3 mesh from "snappyHexMesh/processor3"
Writing pointProcAddressing to "snappyHexMesh/processor3/constant/polyMesh"
Writing faceProcAddressing to "snappyHexMesh/processor3/constant/polyMesh"
Writing cellProcAddressing to "snappyHexMesh/processor3/constant/polyMesh"
Writing boundaryProcAddressing to "snappyHexMesh/processor3/constant/polyMesh"


End

/*---------------------------------------------------------------------------*\
| =========                 |                                                 |
| \\      /  F ield         | OpenFOAM: The Open Source CFD Toolbox           |
|  \\    /   O peration     | Version:  2012                                  |
|   \\  /    A nd           | Website:  www.openfoam.com                      |
|    \\/     M anipulation  |                                                 |
\*---------------------------------------------------------------------------*/
Build  : _269d0ffd5c-20210619 OPENFOAM=2012 patch=210618
Arch   : "LSB;label=32;scalar=64"
Exec   : extrudeMesh
Date   : Nov 01 2021
Time   : 12:45:12
Host   : LAPTOP-LJVLTNH1
PID    : 13505
I/O    : uncollated
Case   : /mnt/c/Users/Tushar/Desktop/OpenFoamToolchain-NEW/OpenFoamToolchain/Simulation_Outputs/test_1/simpleFoam
nProcs : 1
trapFpe: Floating point exception trapping enabled (FOAM_SIGFPE).
fileModificationChecking : Monitoring run-time modified files using timeStampMaster (fileModificationSkew 5, maxFileModificationPolls 20)
allowSystemOperations : Allowing user-supplied system call operations

// * * * * * * * * * * * * * * * * * * * * * * * * * * * * * * * * * * * * * //
Create time



--> FOAM FATAL IO ERROR: (openfoam-2012 patch=210618)
Cannot open etc file "caseDicts/postProcessing/numerical/residuals.cfg" while reading dictionary "/mnt/c/Users/Tushar/Desktop/OpenFoamToolchain-NEW/OpenFoamToolchain/Simulation_Outputs/test_1/simpleFoam/system/residuals"

file: /mnt/c/Users/Tushar/Desktop/OpenFoamToolchain-NEW/OpenFoamToolchain/Simulation_Outputs/test_1/simpleFoam/system/residuals at line 15.

    From static bool Foam::functionEntries::includeEtcEntry::execute(bool, Foam::dictionary&, Foam::Istream&)
    in file db/dictionary/functionEntries/includeEtcEntry/includeEtcEntry.C at line 138.

FOAM exiting

/*---------------------------------------------------------------------------*\
| =========                 |                                                 |
| \\      /  F ield         | OpenFOAM: The Open Source CFD Toolbox           |
|  \\    /   O peration     | Version:  2012                                  |
|   \\  /    A nd           | Website:  www.openfoam.com                      |
|    \\/     M anipulation  |                                                 |
\*---------------------------------------------------------------------------*/
Build  : _269d0ffd5c-20210619 OPENFOAM=2012 patch=210618
Arch   : "LSB;label=32;scalar=64"
Exec   : changeDictionary
Date   : Nov 01 2021
Time   : 12:45:12
Host   : LAPTOP-LJVLTNH1
PID    : 13506
I/O    : uncollated
Case   : /mnt/c/Users/Tushar/Desktop/OpenFoamToolchain-NEW/OpenFoamToolchain/Simulation_Outputs/test_1/simpleFoam
nProcs : 1
trapFpe: Floating point exception trapping enabled (FOAM_SIGFPE).
fileModificationChecking : Monitoring run-time modified files using timeStampMaster (fileModificationSkew 5, maxFileModificationPolls 20)
allowSystemOperations : Allowing user-supplied system call operations

// * * * * * * * * * * * * * * * * * * * * * * * * * * * * * * * * * * * * * //
Create time



--> FOAM FATAL IO ERROR: (openfoam-2012 patch=210618)
Cannot open etc file "caseDicts/postProcessing/numerical/residuals.cfg" while reading dictionary "/mnt/c/Users/Tushar/Desktop/OpenFoamToolchain-NEW/OpenFoamToolchain/Simulation_Outputs/test_1/simpleFoam/system/residuals"

file: /mnt/c/Users/Tushar/Desktop/OpenFoamToolchain-NEW/OpenFoamToolchain/Simulation_Outputs/test_1/simpleFoam/system/residuals at line 15.

    From static bool Foam::functionEntries::includeEtcEntry::execute(bool, Foam::dictionary&, Foam::Istream&)
    in file db/dictionary/functionEntries/includeEtcEntry/includeEtcEntry.C at line 138.

FOAM exiting

/*---------------------------------------------------------------------------*\
| =========                 |                                                 |
| \\      /  F ield         | OpenFOAM: The Open Source CFD Toolbox           |
|  \\    /   O peration     | Version:  2012                                  |
|   \\  /    A nd           | Website:  www.openfoam.com                      |
|    \\/     M anipulation  |                                                 |
\*---------------------------------------------------------------------------*/
Build  : _269d0ffd5c-20210619 OPENFOAM=2012 patch=210618
Arch   : "LSB;label=32;scalar=64"
Exec   : checkMesh -allGeometry -latestTime
Date   : Nov 01 2021
Time   : 12:45:12
Host   : LAPTOP-LJVLTNH1
PID    : 13507
I/O    : uncollated
Case   : /mnt/c/Users/Tushar/Desktop/OpenFoamToolchain-NEW/OpenFoamToolchain/Simulation_Outputs/test_1/simpleFoam
nProcs : 1
trapFpe: Floating point exception trapping enabled (FOAM_SIGFPE).
fileModificationChecking : Monitoring run-time modified files using timeStampMaster (fileModificationSkew 5, maxFileModificationPolls 20)
allowSystemOperations : Allowing user-supplied system call operations

// * * * * * * * * * * * * * * * * * * * * * * * * * * * * * * * * * * * * * //
Create time



--> FOAM FATAL IO ERROR: (openfoam-2012 patch=210618)
Cannot open etc file "caseDicts/postProcessing/numerical/residuals.cfg" while reading dictionary "/mnt/c/Users/Tushar/Desktop/OpenFoamToolchain-NEW/OpenFoamToolchain/Simulation_Outputs/test_1/simpleFoam/system/residuals"

file: /mnt/c/Users/Tushar/Desktop/OpenFoamToolchain-NEW/OpenFoamToolchain/Simulation_Outputs/test_1/simpleFoam/system/residuals at line 15.

    From static bool Foam::functionEntries::includeEtcEntry::execute(bool, Foam::dictionary&, Foam::Istream&)
    in file db/dictionary/functionEntries/includeEtcEntry/includeEtcEntry.C at line 138.

FOAM exiting

/*---------------------------------------------------------------------------*\
| =========                 |                                                 |
| \\      /  F ield         | OpenFOAM: The Open Source CFD Toolbox           |
|  \\    /   O peration     | Version:  2012                                  |
|   \\  /    A nd           | Website:  www.openfoam.com                      |
|    \\/     M anipulation  |                                                 |
\*---------------------------------------------------------------------------*/
Build  : _269d0ffd5c-20210619 OPENFOAM=2012 patch=210618
Arch   : "LSB;label=32;scalar=64"
Exec   : decomposePar
Date   : Nov 01 2021
Time   : 12:45:13
Host   : LAPTOP-LJVLTNH1
PID    : 13508
I/O    : uncollated
Case   : /mnt/c/Users/Tushar/Desktop/OpenFoamToolchain-NEW/OpenFoamToolchain/Simulation_Outputs/test_1/simpleFoam
nProcs : 1
trapFpe: Floating point exception trapping enabled (FOAM_SIGFPE).
fileModificationChecking : Monitoring run-time modified files using timeStampMaster (fileModificationSkew 5, maxFileModificationPolls 20)
allowSystemOperations : Allowing user-supplied system call operations

// * * * * * * * * * * * * * * * * * * * * * * * * * * * * * * * * * * * * * //
Create time



--> FOAM FATAL IO ERROR: (openfoam-2012 patch=210618)
Cannot open etc file "caseDicts/postProcessing/numerical/residuals.cfg" while reading dictionary "/mnt/c/Users/Tushar/Desktop/OpenFoamToolchain-NEW/OpenFoamToolchain/Simulation_Outputs/test_1/simpleFoam/system/residuals"

file: /mnt/c/Users/Tushar/Desktop/OpenFoamToolchain-NEW/OpenFoamToolchain/Simulation_Outputs/test_1/simpleFoam/system/residuals at line 15.

    From static bool Foam::functionEntries::includeEtcEntry::execute(bool, Foam::dictionary&, Foam::Istream&)
    in file db/dictionary/functionEntries/includeEtcEntry/includeEtcEntry.C at line 138.

FOAM exiting

/*---------------------------------------------------------------------------*\
[...]

    {'size_airfoil'         }    "dattogeo.m"    "_VARsize_airfoil_"             "4000"            ""     "Size of mesh near main airfoil"                         
    {'size_airfoil_flap'    }    "dattogeo.m"    "_VARsize_airfoil_flap_"        "4000"            ""     "Size of mesh near the flap airfoil"                     
    {'size_boundary'        }    "dattogeo.m"    "_VARsize_boundary_"            "1.5E-00"         ""     "Size of mesh near boundary"                             
    {'extrude_thickness'    }    "dattogeo.m"    "_VARextrude_thickness_"        "0.1"             ""     "Thickness of extruded mesh"                             
    {'no_layers'            }    "dattogeo.m"    "_VARno_layers_"                "1"               ""     "Number of layers in extrude-direction"                  
    {'rot_x_main'           }    "dattogeo.m"    "_VARrot_x_main_"               "0"               ""     "Centre of rotation for main airfoil (X - coordinate)"   
    {'rot_y_main'           }    "dattogeo.m"    "_VARrot_y_main_"               "0"               ""     "Centre of rotation for main airfoil (Y - coordinate)"   
    {'rot_z_main'           }    "dattogeo.m"    "_VARrot_z_main_"               "0"               ""     "Centre of rotation for main airfoil (Z - coordinate)"   
    {'rot_ang_main'         }    "dattogeo.m"    "_VARrot_ang_main_"             "0"               ""     "Angle of rotation for main airfoil (unit: radians)"     
    {'rot_x_flap'           }    "dattogeo.m"    "_VARrot_x_flap_"               "0"               ""     "Centre of rotation for flap airfoil (X - coordinate)"   
    {'rot_y_flap'           }    "dattogeo.m"    "_VARrot_y_flap_"               "0"               ""     "Centre of rotation for flap airfoil (Y - coordinate)"   
    {'rot_z_flap'           }    "dattogeo.m"    "_VARrot_z_flap_"               "0"               ""     "Centre of rotation for flap airfoil (Z - coordinate)"   
    {'rot_ang_flap'         }    "dattogeo.m"    "_VARrot_ang_flap_"             "0"               ""     "Angle of rotation for flap airfoil (unit: radians)"     
    {'tra_x_main'           }    "dattogeo.m"    "_VARtra_x_main_"               "0"               ""     "Translation for main airfoil (X - coordinate)"          
    {'tra_y_main'           }    "dattogeo.m"    "_VARtra_y_main_"               "0"               ""     "Translation for main airfoil (Y - coordinate)"          
    {'tra_z_main'           }    "dattogeo.m"    "_VARtra_z_main_"               "0"               ""     "Translation for main airfoil (Z - coordinate)"          
    {'tra_x_flap'           }    "dattogeo.m"    "_VARtra_x_flap_"               "0"               ""     "Translation for flap airfoil (X - coordinate)"          
    {'tra_y_flap'           }    "dattogeo.m"    "_VARtra_y_flap_"               "0"               ""     "Translation for flap airfoil (Y - coordinate)"          
    {'tra_z_flap'           }    "dattogeo.m"    "_VARtra_z_flap_"               "0"               ""     "Translation for flap airfoil (Z - coordinate)"          
    {'no_nodes_by_edge'     }    "dattogeo.m"    "_VARno_nodes_by_edge_"         "50"              ""     "Number of nodes in a particular edge"                   
    {'thresh_max_dist'      }    "dattogeo.m"    "_VARthresh_max_dist_"          "3.0"             ""     "Max distance of the threshold"                          
    {'thresh_min_dist'      }    "dattogeo.m"    "_VARthresh_min_dist_"          "0.5"             ""     "Min distance of the threshold"                          
    {'thresh_sigmoid'       }    "dattogeo.m"    "_VARthresh_sigmoid_"           "1"               ""     "Interpolation between mesh inside and outside threshold"
    {'thresh_ifield'        }    "dattogeo.m"    "_VARthresh_ifield_"            "1"               ""     ""                                                       
    {'bd_layer_quads'       }    "dattogeo.m"    "_VARbd_layer_quads_"           "1"               ""     "Quadrilateral boundary layer elements"                  
    {'bd_layer_size_near'   }    "dattogeo.m"    "_VARbd_layer_size_near_"       "0.00029"         ""     "Thickness of boundary layer at the airfoil"             
    {'bd_layer_aniso'       }    "dattogeo.m"    "_VARbd_layer_aniso_"           "10000000000"     ""     ""                                                       
    {'bd_layer_intersect'   }    "dattogeo.m"    "_VARbd_layer_intersect_"       "0"               ""     ""                                                       
    {'bd_layer_growth_ratio'}    "dattogeo.m"    "_VARbd_layer_growth_ratio_"    "1.15"            ""     "Growth ratio of boundary layers"                        
    {'mesh_algo'            }    "dattogeo.m"    "_VARmesh_algo_"                "5"               ""     "Choice of mesh algorithm"                               

searchnreplace (meshParam {i,2},directions.path.mesher,'',meshParam{i,3},meshParam{i,4});run('./Run_Toolchain.m')
{Index in position 1 is invalid. Array indices must be positive integers or logical values.
} 
run('./Run_Toolchain.m')
mkdir: cannot create directory /mnt/c/Users/Tushar/Desktop/OpenFoamToolchain-NEW/OpenFoamToolchain/Simulation_Outputs/test_1: File exists
cp: cannot stat '/mnt/c/Users/Tushar/Desktop/OpenFoamToolchain-NEW/OpenFoamToolchain/Templates/mesher/gmsh/default': No such file or directory
mv: cannot stat '/mnt/c/Users/Tushar/Desktop/OpenFoamToolchain-NEW/OpenFoamToolchain/Simulation_Outputs/test_1/default': No such file or directory
mv: cannot move '/mnt/c/Users/Tushar/Desktop/OpenFoamToolchain-NEW/OpenFoamToolchain/Simulation_Outputs/test_1/4_freestream_kwSST_cp' to '/mnt/c/Users/Tushar/Desktop/OpenFoamToolchain-NEW/OpenFoamToolchain/Simulation_Outputs/test_1/simpleFoam/4_freestream_kwSST_cp': Directory not empty
[Warning: "/mnt/c/Users/Tushar/Desktop/OpenFoamToolchain-NEW/OpenFoamToolchain/Simulation_Outputs" not found in path.] 
[> In rmpath (line 71)
In Run_Toolchain (line 120)
In run (line 91)] 
[Warning: "/mnt/c/Users/Tushar/Desktop/OpenFoamToolchain-NEW/OpenFoamToolchain/Simulation_Inputs" not found in path.] 
[> In rmpath (line 71)
In Run_Toolchain (line 121)
In run (line 91)] 
[Warning: "/mnt/c/Users/Tushar/Desktop/OpenFoamToolchain-NEW/OpenFoamToolchain/Simulation_Inputs/airfoil_coordinates" not found in path.] 
[> In rmpath (line 71)
In Run_Toolchain (line 121)
In run (line 91)] 
[Warning: "/mnt/c/Users/Tushar/Desktop/OpenFoamToolchain-NEW/OpenFoamToolchain/Simulation_Inputs/experimental_data" not found in path.] 
[> In rmpath (line 71)
In Run_Toolchain (line 121)
In run (line 91)] 
[Warning: "/mnt/c/Users/Tushar/Desktop/OpenFoamToolchain-NEW/OpenFoamToolchain/Simulation_Inputs/simulation_parameters" not found in path.] 
[> In rmpath (line 71)
In Run_Toolchain (line 121)
In run (line 91)] 
{Error: File: /mnt/c/Users/Tushar/Desktop/OpenFoamToolchain-NEW/OpenFoamToolchain/Mat_OF_library/dattogeo.m Line: 7 Column: 16
Invalid text character. Check for unsupported symbol, invisible character, or pasting of non-ASCII characters.

Error in Run_Toolchain (line 152)
    dattogeo

Error in run (line 91)
evalin('caller', strcat(script, ';'));
} 
{Error using searchnreplace (line 21)
Cannot open file /mnt/c/Users/Tushar/Desktop/OpenFoamToolchain-NEW/OpenFoamToolchain/Simulation_Outputs/test_1/gmsh/dattogeo.m

Error in Run_Toolchain (line 196)
        searchnreplace (meshParam {i,2},directions.path.mesher,'',meshParam{i,3},meshParam{i,4});

Error in run (line 91)
evalin('caller', strcat(script, ';'));
} 
meshParam

meshParam =

  30x6 table

              name                   file                   alias                    value        type                           description                       
    _________________________    ____________    ____________________________    _____________    ____    _________________________________________________________

    {'size_airfoil'         }    "dattogeo.m"    "_VARsize_airfoil_"             "4000"            ""     "Size of mesh near main airfoil"                         
    {'size_airfoil_flap'    }    "dattogeo.m"    "_VARsize_airfoil_flap_"        "4000"            ""     "Size of mesh near the flap airfoil"                     
    {'size_boundary'        }    "dattogeo.m"    "_VARsize_boundary_"            "1.5E-00"         ""     "Size of mesh near boundary"                             
    {'extrude_thickness'    }    "dattogeo.m"    "_VARextrude_thickness_"        "0.1"             ""     "Thickness of extruded mesh"                             
    {'no_layers'            }    "dattogeo.m"    "_VARno_layers_"                "1"               ""     "Number of layers in extrude-direction"                  
    {'rot_x_main'           }    "dattogeo.m"    "_VARrot_x_main_"               "0"               ""     "Centre of rotation for main airfoil (X - coordinate)"   
    {'rot_y_main'           }    "dattogeo.m"    "_VARrot_y_main_"               "0"               ""     "Centre of rotation for main airfoil (Y - coordinate)"   
    {'rot_z_main'           }    "dattogeo.m"    "_VARrot_z_main_"               "0"               ""     "Centre of rotation for main airfoil (Z - coordinate)"   
    {'rot_ang_main'         }    "dattogeo.m"    "_VARrot_ang_main_"             "0"               ""     "Angle of rotation for main airfoil (unit: radians)"     
    {'rot_x_flap'           }    "dattogeo.m"    "_VARrot_x_flap_"               "0"               ""     "Centre of rotation for flap airfoil (X - coordinate)"   
    {'rot_y_flap'           }    "dattogeo.m"    "_VARrot_y_flap_"               "0"               ""     "Centre of rotation for flap airfoil (Y - coordinate)"   
    {'rot_z_flap'           }    "dattogeo.m"    "_VARrot_z_flap_"               "0"               ""     "Centre of rotation for flap airfoil (Z - coordinate)"   
    {'rot_ang_flap'         }    "dattogeo.m"    "_VARrot_ang_flap_"             "0"               ""     "Angle of rotation for flap airfoil (unit: radians)"     
    {'tra_x_main'           }    "dattogeo.m"    "_VARtra_x_main_"               "0"               ""     "Translation for main airfoil (X - coordinate)"          
    {'tra_y_main'           }    "dattogeo.m"    "_VARtra_y_main_"               "0"               ""     "Translation for main airfoil (Y - coordinate)"          
    {'tra_z_main'           }    "dattogeo.m"    "_VARtra_z_main_"               "0"               ""     "Translation for main airfoil (Z - coordinate)"          
    {'tra_x_flap'           }    "dattogeo.m"    "_VARtra_x_flap_"               "0"               ""     "Translation for flap airfoil (X - coordinate)"          
    {'tra_y_flap'           }    "dattogeo.m"    "_VARtra_y_flap_"               "0"               ""     "Translation for flap airfoil (Y - coordinate)"          
    {'tra_z_flap'           }    "dattogeo.m"    "_VARtra_z_flap_"               "0"               ""     "Translation for flap airfoil (Z - coordinate)"          
    {'no_nodes_by_edge'     }    "dattogeo.m"    "_VARno_nodes_by_edge_"         "50"              ""     "Number of nodes in a particular edge"                   
    {'thresh_max_dist'      }    "dattogeo.m"    "_VARthresh_max_dist_"          "3.0"             ""     "Max distance of the threshold"                          
    {'thresh_min_dist'      }    "dattogeo.m"    "_VARthresh_min_dist_"          "0.5"             ""     "Min distance of the threshold"                          
    {'thresh_sigmoid'       }    "dattogeo.m"    "_VARthresh_sigmoid_"           "1"               ""     "Interpolation between mesh inside and outside threshold"
    {'thresh_ifield'        }    "dattogeo.m"    "_VARthresh_ifield_"            "1"               ""     ""                                                       
    {'bd_layer_quads'       }    "dattogeo.m"    "_VARbd_layer_quads_"           "1"               ""     "Quadrilateral boundary layer elements"                  
    {'bd_layer_size_near'   }    "dattogeo.m"    "_VARbd_layer_size_near_"       "0.00029"         ""     "Thickness of boundary layer at the airfoil"             
    {'bd_layer_aniso'       }    "dattogeo.m"    "_VARbd_layer_aniso_"           "10000000000"     ""     ""                                                       
    {'bd_layer_intersect'   }    "dattogeo.m"    "_VARbd_layer_intersect_"       "0"               ""     ""                                                       
    {'bd_layer_growth_ratio'}    "dattogeo.m"    "_VARbd_layer_growth_ratio_"    "1.15"            ""     "Growth ratio of boundary layers"                        
    {'mesh_algo'            }    "dattogeo.m"    "_VARmesh_algo_"                "5"               ""     "Choice of mesh algorithm"                               

run('./Run_Toolchain.m')
mkdir: cannot create directory /mnt/c/Users/Tushar/Desktop/OpenFoamToolchain-NEW/OpenFoamToolchain/Simulation_Outputs/test_1: File exists
cp: cannot stat '/mnt/c/Users/Tushar/Desktop/OpenFoamToolchain-NEW/OpenFoamToolchain/Templates/mesher/gmsh/v6': No such file or directory
mv: cannot stat '/mnt/c/Users/Tushar/Desktop/OpenFoamToolchain-NEW/OpenFoamToolchain/Simulation_Outputs/test_1/v6': No such file or directory
mv: cannot move '/mnt/c/Users/Tushar/Desktop/OpenFoamToolchain-NEW/OpenFoamToolchain/Simulation_Outputs/test_1/4_freestream_kwSST_cp' to '/mnt/c/Users/Tushar/Desktop/OpenFoamToolchain-NEW/OpenFoamToolchain/Simulation_Outputs/test_1/simpleFoam/4_freestream_kwSST_cp': Directory not empty
[Warning: "/mnt/c/Users/Tushar/Desktop/OpenFoamToolchain-NEW/OpenFoamToolchain/Simulation_Outputs" not found in path.] 
[> In rmpath (line 71)
In Run_Toolchain (line 120)
In run (line 91)] 
[Warning: "/mnt/c/Users/Tushar/Desktop/OpenFoamToolchain-NEW/OpenFoamToolchain/Simulation_Inputs" not found in path.] 
[> In rmpath (line 71)
In Run_Toolchain (line 121)
In run (line 91)] 
[Warning: "/mnt/c/Users/Tushar/Desktop/OpenFoamToolchain-NEW/OpenFoamToolchain/Simulation_Inputs/airfoil_coordinates" not found in path.] 
[> In rmpath (line 71)
In Run_Toolchain (line 121)
In run (line 91)] 
[Warning: "/mnt/c/Users/Tushar/Desktop/OpenFoamToolchain-NEW/OpenFoamToolchain/Simulation_Inputs/experimental_data" not found in path.] 
[> In rmpath (line 71)
In Run_Toolchain (line 121)
In run (line 91)] 
[Warning: "/mnt/c/Users/Tushar/Desktop/OpenFoamToolchain-NEW/OpenFoamToolchain/Simulation_Inputs/simulation_parameters" not found in path.] 
[> In rmpath (line 71)
In Run_Toolchain (line 121)
In run (line 91)] 
{Error using searchnreplace (line 21)
Cannot open file /mnt/c/Users/Tushar/Desktop/OpenFoamToolchain-NEW/OpenFoamToolchain/Simulation_Outputs/test_1/gmsh/dattogeo.m

Error in Run_Toolchain (line 196)
        searchnreplace (meshParam {i,2},directions.path.mesher,'',meshParam{i,3},meshParam{i,4});

Error in run (line 91)
evalin('caller', strcat(script, ';'));
} 
run('./Simulation_Outputs/test_1/dattogeo.m')
{Error: File: /mnt/c/Users/Tushar/Desktop/OpenFoamToolchain-NEW/OpenFoamToolchain/Simulation_Outputs/test_1/dattogeo.m Line: 9 Column: 16
Invalid text character. Check for unsupported symbol, invisible character, or pasting of non-ASCII characters.

Error in run (line 91)
evalin('caller', strcat(script, ';'));
} 
run('./Run_Toolchain.m')
mkdir: cannot create directory /mnt/c/Users/Tushar/Desktop/OpenFoamToolchain-NEW/OpenFoamToolchain/Simulation_Outputs/test_1: File exists
cp: cannot stat '/mnt/c/Users/Tushar/Desktop/OpenFoamToolchain-NEW/OpenFoamToolchain/Templates/mesher/gmsh/v6': No such file or directory
mv: cannot stat '/mnt/c/Users/Tushar/Desktop/OpenFoamToolchain-NEW/OpenFoamToolchain/Simulation_Outputs/test_1/v6': No such file or directory
mv: cannot move '/mnt/c/Users/Tushar/Desktop/OpenFoamToolchain-NEW/OpenFoamToolchain/Simulation_Outputs/test_1/4_freestream_kwSST_cp' to '/mnt/c/Users/Tushar/Desktop/OpenFoamToolchain-NEW/OpenFoamToolchain/Simulation_Outputs/test_1/simpleFoam/4_freestream_kwSST_cp': Directory not empty
[Warning: "/mnt/c/Users/Tushar/Desktop/OpenFoamToolchain-NEW/OpenFoamToolchain/Simulation_Outputs" not found in path.] 
[> In rmpath (line 71)
In Run_Toolchain (line 120)
In run (line 91)] 
[Warning: "/mnt/c/Users/Tushar/Desktop/OpenFoamToolchain-NEW/OpenFoamToolchain/Simulation_Inputs" not found in path.] 
[> In rmpath (line 71)
In Run_Toolchain (line 121)
In run (line 91)] 
[Warning: "/mnt/c/Users/Tushar/Desktop/OpenFoamToolchain-NEW/OpenFoamToolchain/Simulation_Inputs/airfoil_coordinates" not found in path.] 
[> In rmpath (line 71)
In Run_Toolchain (line 121)
In run (line 91)] 
[Warning: "/mnt/c/Users/Tushar/Desktop/OpenFoamToolchain-NEW/OpenFoamToolchain/Simulation_Inputs/experimental_data" not found in path.] 
[> In rmpath (line 71)
In Run_Toolchain (line 121)
In run (line 91)] 
[Warning: "/mnt/c/Users/Tushar/Desktop/OpenFoamToolchain-NEW/OpenFoamToolchain/Simulation_Inputs/simulation_parameters" not found in path.] 
[> In rmpath (line 71)
In Run_Toolchain (line 121)
In run (line 91)] 
{Error using searchnreplace (line 21)
Cannot open file /mnt/c/Users/Tushar/Desktop/OpenFoamToolchain-NEW/OpenFoamToolchain/Simulation_Outputs/test_1/gmsh/dattogeo.m

Error in Run_Toolchain (line 196)
        searchnreplace (meshParam {i,2},directions.path.mesher,'',meshParam{i,3},meshParam{i,4});

Error in run (line 91)
evalin('caller', strcat(script, ';'));
} 
run('./Run_Toolchain.m')
cp: cannot stat '/mnt/c/Users/Tushar/Desktop/OpenFoamToolchain-NEW/OpenFoamToolchain/Templates/mesher/gmsh/v6': No such file or directory
mv: cannot stat '/mnt/c/Users/Tushar/Desktop/OpenFoamToolchain-NEW/OpenFoamToolchain/Simulation_Outputs/test_2/v6': No such file or directory
[Warning: "/mnt/c/Users/Tushar/Desktop/OpenFoamToolchain-NEW/OpenFoamToolchain/Simulation_Outputs" not found in path.] 
[> In rmpath (line 71)
In Run_Toolchain (line 120)
In run (line 91)] 
[Warning: "/mnt/c/Users/Tushar/Desktop/OpenFoamToolchain-NEW/OpenFoamToolchain/Simulation_Outputs/test_2" not found in path.] 
[> In rmpath (line 71)
In Run_Toolchain (line 120)
In run (line 91)] 
[Warning: "/mnt/c/Users/Tushar/Desktop/OpenFoamToolchain-NEW/OpenFoamToolchain/Simulation_Outputs/test_2/simpleFoam" not found in path.] 
[> In rmpath (line 71)
In Run_Toolchain (line 120)
In run (line 91)] 
[Warning: "/mnt/c/Users/Tushar/Desktop/OpenFoamToolchain-NEW/OpenFoamToolchain/Simulation_Outputs/test_2/simpleFoam/0" not found in path.] 
[> In rmpath (line 71)
In Run_Toolchain (line 120)
In run (line 91)] 
[Warning: "/mnt/c/Users/Tushar/Desktop/OpenFoamToolchain-NEW/OpenFoamToolchain/Simulation_Outputs/test_2/simpleFoam/constant" not found in path.] 
[> In rmpath (line 71)
In Run_Toolchain (line 120)
In run (line 91)] 
[Warning: "/mnt/c/Users/Tushar/Desktop/OpenFoamToolchain-NEW/OpenFoamToolchain/Simulation_Outputs/test_2/simpleFoam/system" not found in path.] 
[> In rmpath (line 71)
In Run_Toolchain (line 120)
In run (line 91)] 
[Warning: "/mnt/c/Users/Tushar/Desktop/OpenFoamToolchain-NEW/OpenFoamToolchain/Simulation_Inputs" not found in path.] 
[> In rmpath (line 71)
In Run_Toolchain (line 121)
In run (line 91)] 
[Warning: "/mnt/c/Users/Tushar/Desktop/OpenFoamToolchain-NEW/OpenFoamToolchain/Simulation_Inputs/airfoil_coordinates" not found in path.] 
[> In rmpath (line 71)
In Run_Toolchain (line 121)
In run (line 91)] 
[Warning: "/mnt/c/Users/Tushar/Desktop/OpenFoamToolchain-NEW/OpenFoamToolchain/Simulation_Inputs/experimental_data" not found in path.] 
[> In rmpath (line 71)
In Run_Toolchain (line 121)
In run (line 91)] 
[Warning: "/mnt/c/Users/Tushar/Desktop/OpenFoamToolchain-NEW/OpenFoamToolchain/Simulation_Inputs/simulation_parameters" not found in path.] 
[> In rmpath (line 71)
In Run_Toolchain (line 121)
In run (line 91)] 
